   18
optimized
O      -1.516074336e+00  -2.023167650e-01   1.454672917e+00
H      -6.218989773e-01  -6.009430735e-01   1.572437625e+00
H      -2.017613812e+00  -4.190350349e-01   2.239642849e+00
O      -1.763651687e+00  -3.816594649e-01  -1.300353949e+00
H      -1.903851736e+00  -4.935677617e-01  -3.457810126e-01
H      -2.527904158e+00  -7.613550077e-01  -1.733803676e+00
O      -5.588472140e-01   2.006699172e+00  -1.392786582e-01
H      -9.411558180e-01   1.541226676e+00   6.163293071e-01
H      -9.858551734e-01   1.567124294e+00  -8.830970941e-01
O       9.673854848e-01  -1.160426927e+00   1.440845266e+00
H       9.814625996e-01  -1.529402695e+00   5.401089521e-01
H       1.536676885e+00  -3.887762454e-01   1.334406864e+00
O       9.855626701e-01  -1.385793788e+00  -1.354218422e+00
H       7.946639458e-02  -1.111853527e+00  -1.546018991e+00
H       1.475842514e+00  -5.576197416e-01  -1.285817949e+00
O       2.014007145e+00   1.064497707e+00  -1.199221834e-01
H       1.161696588e+00   1.540149015e+00  -1.442228057e-01
H       2.692312632e+00   1.730309167e+00  -2.291370401e-01
